LTspice 24.0.12 for Windows
Circuit: * C:\Users\thistle\projects\enshu-git\kairo\Draft3.asc
Start Time: Mon Jun 17 13:31:05 2024
solver = Normal
Maximum thread count: 8
tnom = 27
temp = 27
method = modified trap
.OP point found by inspection.
Ignoring empty pin current: Ix(u1:1)
Ignoring empty pin current: Ix(u1:2)
Ignoring empty pin current: Ix(u1:1)
Ignoring empty pin current: Ix(u1:2)
Total elapsed time: 0.227 seconds.

