LTspice 24.0.12 for Windows
Circuit: * C:\Users\thistle\projects\enshu-git\sonota\1-4-2.asc
Start Time: Tue Dec 24 14:26:06 2024
solver = Normal
Maximum thread count: 8
tnom = 27
temp = 27
method = modified trap
Direct Newton iteration for .op point succeeded.
Total elapsed time: 0.141 seconds.

