LTspice 24.0.12 for Windows
Circuit: * C:\Users\thistle\projects\enshu-git\sonota\1-4.asc
Start Time: Tue Dec 24 14:51:22 2024
solver = Normal
Maximum thread count: 8
tnom = 27
temp = 27
method = modified trap
Direct Newton iteration for .op point succeeded.
Total elapsed time: 0.110 seconds.

