LTspice 24.0.12 for Windows
Circuit: * C:\Users\thistle\projects\enshu-git\sonota\2-1.asc
Start Time: Wed Jan  8 13:06:25 2025
solver = Normal
Maximum thread count: 8
tnom = 27
temp = 27
method = modified trap
Direct Newton iteration for .op point succeeded.
Total elapsed time: 0.037 seconds.

