LTspice 24.0.12 for Windows
Circuit: * C:\Users\thistle\projects\enshu-git\keisu_jikken\opamp2\Draft1.asc
Start Time: Tue Dec 24 14:08:11 2024
solver = Normal
Maximum thread count: 8
tnom = 27
temp = 27
method = modified trap
.OP point found by inspection.
Total elapsed time: 0.046 seconds.

