LTspice 24.0.12 for Windows
Circuit: * C:\Users\Thistle\projects\univ\enshu-git\kairo\Draft2.asc
Start Time: Mon Jun 17 20:48:45 2024
solver = Normal
Maximum thread count: 8
tnom = 27
temp = 27
method = modified trap
Direct Newton iteration for .op point succeeded.
Ignoring empty pin current: Ix(u1:1)
Ignoring empty pin current: Ix(u1:2)
Ignoring empty pin current: Ix(u1:1)
Ignoring empty pin current: Ix(u1:2)
Total elapsed time: 0.083 seconds.

